.model 1N4148 D IS=0.1P RS=16 CJO=2P TT=12N BV=100 IBV=3.867E-10
.model 1N4001 D IS=29.5E-9 RS=73.5E-3 N=1.96 CJO=34.6P VJ=0.627 M=0.461 BV=60 IBV=10U
.model BYG22D D IS=1.0911E-007 N=2.26044 RS=0.06703 EG=1.27406 XTI=2.18234 TNOM=27 CJO=6.64321E-011 VJ=0.700169 M=0.375121 FC=0.5 TT=4.93261E-008 BV=220 IBV=1 AF=1 KF=0
.model Laser D IS=1e-22 RS=6 N=1.5 CJO=50p XTI=100 IAVE=160m VPK=5